Version 4
SHEET 1 880 680
WIRE -576 -16 -592 -16
WIRE 416 0 352 0
WIRE 496 0 416 0
WIRE 496 16 496 0
WIRE -592 48 -592 -16
WIRE 96 96 0 96
WIRE 112 96 96 96
WIRE 416 96 416 0
WIRE 416 96 320 96
WIRE 0 128 0 96
WIRE 640 144 640 80
WIRE 96 160 -208 160
WIRE 400 160 320 160
WIRE 496 160 496 96
WIRE 496 160 400 160
WIRE -592 208 -592 128
WIRE 96 224 48 224
WIRE 400 224 400 160
WIRE 400 224 320 224
WIRE -208 256 -208 160
WIRE 96 288 32 288
WIRE 368 288 320 288
WIRE 640 288 640 224
WIRE 368 320 368 288
WIRE 496 320 496 160
WIRE -208 336 -208 320
WIRE -208 368 -208 336
WIRE 368 416 368 384
WIRE 496 416 496 384
FLAG -576 -16 VCC
IOPIN -576 -16 Out
FLAG 352 0 VCC
IOPIN 352 0 Out
FLAG 32 288 VCC
IOPIN 32 288 Out
FLAG -592 208 0
FLAG -208 368 0
FLAG 0 128 0
FLAG 368 416 0
FLAG 496 416 0
FLAG 640 288 0
FLAG 48 224 Tout
IOPIN 48 224 BiDir
FLAG 640 80 Tout
IOPIN 640 80 BiDir
SYMBOL Misc\\NE555 208 192 R0
SYMATTR InstName U1
SYMBOL voltage -592 32 R0
WINDOW 123 0 0 Left 0
WINDOW 39 0 0 Left 0
SYMATTR InstName V1
SYMATTR Value 12
SYMBOL cap 352 320 R0
SYMATTR InstName C1
SYMATTR Value 10nF
SYMBOL cap 480 320 R0
SYMATTR InstName C2
SYMATTR Value 1µF
SYMBOL res 624 128 R0
SYMATTR InstName R1
SYMATTR Value 10K
SYMBOL res 480 0 R0
SYMATTR InstName R2
SYMATTR Value 45K
SYMBOL voltage -208 240 R0
WINDOW 123 0 0 Left 0
WINDOW 39 0 0 Left 0
SYMATTR InstName V3
SYMATTR Value PULSE(12 0 0 1us 1us 10ms 100ms 2)
TEXT -864 288 Left 2 ;Monostable 555 timer output t = 1.1 R1 * C1\nt = 50 msec
TEXT -64 416 Left 2 !.tran 200ms
