Version 4
SHEET 1 1268 776
WIRE -592 96 -592 48
WIRE 416 96 128 96
WIRE 240 208 240 176
WIRE -592 256 -592 176
WIRE -592 256 -656 256
WIRE 128 256 128 96
WIRE 208 256 128 256
WIRE -656 288 -656 256
WIRE 416 288 416 96
WIRE 416 288 352 288
WIRE 512 288 416 288
WIRE 624 288 512 288
WIRE 704 288 624 288
WIRE 208 320 64 320
WIRE 512 336 512 288
WIRE 624 336 624 288
WIRE -592 352 -592 256
WIRE 64 368 64 320
WIRE 240 432 240 368
WIRE 288 432 288 368
WIRE 320 432 288 432
WIRE 512 464 512 400
WIRE 624 464 624 416
WIRE 624 464 512 464
WIRE -592 496 -592 432
WIRE 64 512 64 448
WIRE 512 512 512 464
FLAG 64 512 0
FLAG 704 288 OUT
FLAG -656 288 0
FLAG -592 496 vee
FLAG 240 432 vee
FLAG -592 48 vcc
FLAG 240 176 vcc
FLAG 512 512 0
FLAG 320 432 vcc
FLAG 64 320 Vin
SYMBOL voltage 64 352 R0
WINDOW 123 24 124 Left 2
WINDOW 39 0 0 Left 0
WINDOW 3 -317 223 Left 2
SYMATTR Value2 AC 1
SYMATTR InstName VIN
SYMATTR Value PULSE(0 10mV 1u 10n 10n 5u)
SYMBOL voltage -592 448 R180
WINDOW 0 24 96 Left 2
WINDOW 3 24 16 Left 2
WINDOW 123 0 0 Left 0
WINDOW 39 0 0 Left 0
SYMATTR InstName VEE
SYMATTR Value -5V
SYMBOL voltage -592 80 R0
WINDOW 123 0 0 Left 0
WINDOW 39 0 0 Left 0
SYMATTR InstName VCC
SYMATTR Value 5V
SYMBOL cap 496 336 R0
SYMATTR InstName C1
SYMATTR Value 85p
SYMBOL Opamps\\LT1809 240 288 R0
SYMATTR InstName U1
SYMBOL res 608 320 R0
SYMATTR InstName R1
SYMATTR Value 1Meg
TEXT -676 596 Left 2 !.tran 0 10u 0 .01u
TEXT 584 200 Left 2 ;Increase C1 to 100pF and it will oscillate
TEXT 112 760 Left 2 ;https://www.youtube.com/watch?v=-CS5th2zKWY&list=PL_rLquuhAChH88tZ8HICwdZ_rp9Djl-OB
